input/IEEE24busPsse30.raw
 0, 100.0/RAWD VER 30 EXPORT BY PSAT
   IEEE 24 (RTS-96) Bus Test Case
 04/09/2019  this raw file was created by X.Li at UofHouston
       1,'Bus 1       ',138.00,3,.000,.000,   1,   1,1.00000,.0000,   1,/* [                                ] */
       2,'Bus 2       ',138.00,2,.000,.000,   1,   1,1.00000,.3716,   1,/* [                                ] */
       3,'Bus 3       ',138.00,1,.000,.000,   1,   1,.95773,1.7932,   1,/* [                                ] */
       4,'Bus 4       ',138.00,1,.000,.000,   1,   1,.96290,-.8093,   1,/* [                                ] */
       5,'Bus 5       ',138.00,1,.000,.000,   1,   1,.98672,-1.0012,   1,/* [                                ] */
       6,'Bus 6       ',138.00,1,.000,.000,   1,   1,1.01165,-3.8142,   1,/* [                                ] */
       7,'Bus 7       ',138.00,2,.000,.000,   1,   1,1.00000,9.7823,   1,/* [                                ] */
       8,'Bus 8       ',138.00,1,.000,.000,   1,   1,.96600,3.8063,   1,/* [                                ] */
       9,'Bus 9       ',138.00,1,.000,.000,   1,   1,.96492,2.0867,   1,/* [                                ] */
      10,'Bus 10      ',230.00,1,.000,19.000,   1,   1,.99108,.4936,   1,/* [                                ] */
      11,'Bus 11      ',230.00,1,.000,.000,   1,   1,.98824,6.0858,   1,/* [                                ] */
      12,'Bus 12      ',230.00,1,.000,.000,   1,   1,.98154,8.3076,   1,/* [                                ] */
      13,'Bus 13      ',230.00,2,.000,.000,   1,   1,1.00000,11.2858,   1,/* [                                ] */
      14,'Bus 14      ',230.00,2,.000,.000,   1,   1,1.00000,7.8371,   1,/* [                                ] */
      15,'Bus 15      ',230.00,2,.000,.000,   1,   1,.99920,15.2051,   1,/* [                                ] */
      16,'Bus 16      ',230.00,2,.000,.000,   1,   1,1.00000,15.0849,   1,/* [                                ] */
      17,'Bus 17      ',230.00,1,.000,.000,   1,   1,1.00060,17.7343,   1,/* [                                ] */
      18,'Bus 18      ',230.00,2,.000,.000,   1,   1,1.00000,18.6254,   1,/* [                                ] */
      19,'Bus 19      ',230.00,1,.000,.000,   1,   1,.99275,14.6952,   1,/* [                                ] */
      20,'Bus 20      ',230.00,1,.000,.000,   1,   1,.99486,16.4315,   1,/* [                                ] */
      21,'Bus 21      ',230.00,2,.000,.000,   1,   1,1.00000,19.1327,   1,/* [                                ] */
      22,'Bus 22      ',230.00,2,.000,.000,   1,   1,1.00000,21.8598,   1,/* [                                ] */
      23,'Bus 23      ',230.00,2,.000,.000,   1,   1,1.00000,18.1803,   1,/* [                                ] */
      24,'Bus 24      ',230.00,1,.000,4.300,   1,   1,.97486,10.2434,   1,/* [                                ] */
0 / END OF BUS DATA, BEGIN LOAD DATA
1,'1 ',1,   1,   1,95.000,22.000,.000,.000,.000,.000,   1,/* [                                ] */
2,'1 ',1,   1,   1,91.000,20.000,.000,.000,.000,.000,   1,/* [                                ] */
3,'1 ',1,   1,   1,160.000,33.000,.000,.000,.000,.000,   1,/* [                                ] */
4,'1 ',1,   1,   1,64.000,15.000,.000,.000,.000,.000,   1,/* [                                ] */
5,'1 ',1,   1,   1,51.000,14.000,.000,.000,.000,.000,   1,/* [                                ] */
6,'1 ',1,   1,   1,130.000,21.000,.000,.000,.000,.000,   1,/* [                                ] */
7,'1 ',1,   1,   1,85.000,25.000,.000,.000,.000,.000,   1,/* [                                ] */
8,'1 ',1,   1,   1,121.000,31.000,.000,.000,.000,.000,   1,/* [                                ] */
9,'1 ',1,   1,   1,170.000,36.000,.000,.000,.000,.000,   1,/* [                                ] */
10,'1 ',1,   1,   1,170.000,40.000,.000,.000,.000,.000,   1,/* [                                ] */
13,'1 ',1,   1,   1,205.000,34.000,.000,.000,.000,.000,   1,/* [                                ] */
14,'1 ',1,   1,   1,154.000,29.000,.000,.000,.000,.000,   1,/* [                                ] */
15,'1 ',1,   1,   1,307.000,24.000,.000,.000,.000,.000,   1,/* [                                ] */
16,'1 ',1,   1,   1,80.000,20.000,.000,.000,.000,.000,   1,/* [                                ] */
18,'1 ',1,   1,   1,233.000,39.000,.000,.000,.000,.000,   1,/* [                                ] */
19,'1 ',1,   1,   1,181.000,27.000,.000,.000,.000,.000,   1,/* [                                ] */
20,'1 ',1,   1,   1,128.100,26.000,.000,.000,.000,.000,   1,/* [                                ] */
0 / END OF LOAD DATA, BEGIN GENERATOR DATA
     1,'1 ',65.13,59.50,80.00,-50.00,1.00000,     0,100.00,.00000,1.00000,.00000,.00000,1.00000,1,100.0,192.00,.00,   1,1.0000,,,,,,,,/* [                                ] */
     2,'1 ',192.00,15.75,80.00,-50.00,1.00000,     0,100.00,.00000,1.00000,.00000,.00000,1.00000,1,100.0,192.00,.00,   1,1.0000,,,,,,,,/* [                                ] */
     7,'1 ',255.00,43.47,180.00,.00,1.00000,     0,100.00,.00000,1.00000,.00000,.00000,1.00000,1,100.0,300.00,.00,   1,1.0000,,,,,,,,/* [                                ] */
    13,'1 ',300.00,80.05,240.00,.00,1.00000,     0,100.00,.00000,1.00000,.00000,.00000,1.00000,1,100.0,560.00,.00,   1,1.0000,,,,,,,,/* [                                ] */
    14,'1 ',17.00,71.51,200.00,.00,1.00000,     0,100.00,.00000,1.00000,.00000,.00000,1.00000,1,100.0,30.00,.00,   1,1.0000,,,,,,,,/* [                                ] */
    15,'1 ',200.00,80.00,80.00,-50.00,1.00000,     0,100.00,.00000,1.00000,.00000,.00000,1.00000,1,100.0,210.00,.00,   1,1.0000,,,,,,,,/* [                                ] */
    16,'1 ',150.00,56.98,80.00,-50.00,1.00000,     0,100.00,.00000,1.00000,.00000,.00000,1.00000,1,100.0,150.00,.00,   1,1.0000,,,,,,,,/* [                                ] */
    18,'1 ',275.00,23.85,200.00,-50.00,1.00000,     0,100.00,.00000,1.00000,.00000,.00000,1.00000,1,100.0,400.00,.00,   1,1.0000,,,,,,,,/* [                                ] */
    21,'1 ',275.00,-41.86,200.00,-50.00,1.00000,     0,100.00,.00000,1.00000,.00000,.00000,1.00000,1,100.0,400.00,.00,   1,1.0000,,,,,,,,/* [                                ] */
    22,'1 ',137.00,-30.20,96.00,-60.00,1.00000,     0,100.00,.00000,1.00000,.00000,.00000,1.00000,1,100.0,240.00,.00,   1,1.0000,,,,,,,,/* [                                ] */
    23,'1 ',590.00,-3.50,310.00,-125.00,1.00000,     0,100.00,.00000,1.00000,.00000,.00000,1.00000,1,100.0,690.00,.00,   1,1.0000,,,,,,,,/* [                                ] */
0 / END OF GENERATOR DATA, BEGIN BRANCH DATA
       1,       2,'1 ',    0.30000E-02,    0.14000E-01,    0.65000E-03,175.00,.00,195.00,.00000,.00000,.00000,.00000,1,.00,   1,1.0000,,,,,,,,/* [                                ] */
       3,       1,'1 ',    0.54190E-01,    0.21100    ,    0.61300E-01,175.00,.00,195.00,.00000,.00000,.00000,.00000,1,.00,   1,1.0000,,,,,,,,/* [                                ] */
       1,       5,'1 ',    0.22430E-01,    0.85000E-01,    0.24400E-01,175.00,.00,195.00,.00000,.00000,.00000,.00000,1,.00,   1,1.0000,,,,,,,,/* [                                ] */
       2,       4,'1 ',    0.33610E-01,    0.12700    ,    0.36600E-01,175.00,.00,195.00,.00000,.00000,.00000,.00000,1,.00,   1,1.0000,,,,,,,,/* [                                ] */
       2,       6,'1 ',    0.50640E-01,    0.19200    ,    0.55700E-01,175.00,.00,195.00,.00000,.00000,.00000,.00000,1,.00,   1,1.0000,,,,,,,,/* [                                ] */
       3,       9,'1 ',    0.31480E-01,    0.11900    ,    0.34300E-01,175.00,.00,195.00,.00000,.00000,.00000,.00000,1,.00,   1,1.0000,,,,,,,,/* [                                ] */
       4,       9,'1 ',    0.26920E-01,    0.10400    ,    0.27900E-01,175.00,.00,195.00,.00000,.00000,.00000,.00000,1,.00,   1,1.0000,,,,,,,,/* [                                ] */
      10,       5,'1 ',    0.22620E-01,    0.88000E-01,    0.13029    ,175.00,.00,195.00,.00000,.00000,.00000,.00000,1,.00,   1,1.0000,,,,,,,,/* [                                ] */
      10,       6,'1 ',    0.22620E-01,    0.61000E-01,    0.13029    ,175.00,.00,195.00,.00000,.00000,.00000,.00000,1,.00,   1,1.0000,,,,,,,,/* [                                ] */
       7,       8,'1 ',    0.16140E-01,    0.61000E-01,    0.17900E-01,175.00,.00,195.00,.00000,.00000,.00000,.00000,1,.00,   1,1.0000,,,,,,,,/* [                                ] */
       8,       9,'1 ',    0.42340E-01,    0.16500    ,    0.47800E-01,175.00,.00,195.00,.00000,.00000,.00000,.00000,1,.00,   1,1.0000,,,,,,,,/* [                                ] */
       8,      10,'1 ',    0.42340E-01,    0.16500    ,    0.47800E-01,175.00,.00,195.00,.00000,.00000,.00000,.00000,1,.00,   1,1.0000,,,,,,,,/* [                                ] */
      11,      13,'1 ',    0.58300E-02,    0.75000E-01,    0.95900E-01,400.00,.00,400.00,.00000,.00000,.00000,.00000,1,.00,   1,1.0000,,,,,,,,/* [                                ] */
      11,      14,'1 ',    0.51300E-02,    0.42000E-01,    0.84300E-01,400.00,.00,400.00,.00000,.00000,.00000,.00000,1,.00,   1,1.0000,,,,,,,,/* [                                ] */
      12,      13,'1 ',    0.58300E-02,    0.48000E-01,    0.95900E-01,400.00,.00,400.00,.00000,.00000,.00000,.00000,1,.00,   1,1.0000,,,,,,,,/* [                                ] */
      12,      23,'1 ',    0.12240E-01,    0.97000E-01,    0.19840    ,400.00,.00,400.00,.00000,.00000,.00000,.00000,1,.00,   1,1.0000,,,,,,,,/* [                                ] */
      23,      13,'1 ',    0.10600E-01,    0.87000E-01,    0.17520    ,400.00,.00,400.00,.00000,.00000,.00000,.00000,1,.00,   1,1.0000,,,,,,,,/* [                                ] */
      14,      16,'1 ',    0.47700E-02,    0.59000E-01,    0.78500E-01,240.00,.00,275.00,.00000,.00000,.00000,.00000,1,.00,   1,1.0000,,,,,,,,/* [                                ] */
      16,      15,'1 ',    0.21200E-02,    0.17000    ,    0.34900E-01,240.00,.00,275.00,.00000,.00000,.00000,.00000,1,.00,   1,1.0000,,,,,,,,/* [                                ] */
      15,      21,'1 ',    0.60700E-02,    0.49000E-01,    0.10060    ,240.00,.00,275.00,.00000,.00000,.00000,.00000,1,.00,   1,1.0000,,,,,,,,/* [                                ] */
      21,      15,'2 ',    0.60700E-02,    0.49000E-01,    0.10060    ,240.00,.00,275.00,.00000,.00000,.00000,.00000,1,.00,   1,1.0000,,,,,,,,/* [                                ] */
      15,      24,'1 ',    0.64200E-02,    0.52000E-01,    0.10660    ,275.00,.00,300.00,.00000,.00000,.00000,.00000,1,.00,   1,1.0000,,,,,,,,/* [                                ] */
      16,      17,'1 ',    0.31800E-02,    0.26000E-01,    0.52300E-01,275.00,.00,300.00,.00000,.00000,.00000,.00000,1,.00,   1,1.0000,,,,,,,,/* [                                ] */
      16,      19,'1 ',    0.28300E-02,    0.23000E-01,    0.46500E-01,275.00,.00,300.00,.00000,.00000,.00000,.00000,1,.00,   1,1.0000,,,,,,,,/* [                                ] */
      17,      18,'1 ',    0.17700E-02,    0.14000E-01,    0.29100E-01,275.00,.00,300.00,.00000,.00000,.00000,.00000,1,.00,   1,1.0000,,,,,,,,/* [                                ] */
      17,      22,'1 ',    0.12250E-01,    0.10500    ,    0.21160    ,200.00,.00,240.00,.00000,.00000,.00000,.00000,1,.00,   1,1.0000,,,,,,,,/* [                                ] */
      18,      21,'1 ',    0.33100E-02,    0.26000E-01,    0.53300E-01,200.00,.00,240.00,.00000,.00000,.00000,.00000,1,.00,   1,1.0000,,,,,,,,/* [                                ] */
      18,      21,'2 ',    0.33100E-02,    0.26000E-01,    0.53300E-01,200.00,.00,240.00,.00000,.00000,.00000,.00000,1,.00,   1,1.0000,,,,,,,,/* [                                ] */
      19,      20,'1 ',    0.50500E-02,    0.40000E-01,    0.81400E-01,450.00,.00,450.00,.00000,.00000,.00000,.00000,1,.00,   1,1.0000,,,,,,,,/* [                                ] */
      19,      20,'2 ',    0.50500E-02,    0.40000E-01,    0.81400E-01,450.00,.00,450.00,.00000,.00000,.00000,.00000,1,.00,   1,1.0000,,,,,,,,/* [                                ] */
      20,      23,'1 ',    0.27600E-02,    0.22000E-01,    0.44400E-01,450.00,.00,450.00,.00000,.00000,.00000,.00000,1,.00,   1,1.0000,,,,,,,,/* [                                ] */
      20,      23,'2 ',    0.27600E-02,    0.22000E-01,    0.44400E-01,450.00,.00,450.00,.00000,.00000,.00000,.00000,1,.00,   1,1.0000,,,,,,,,/* [                                ] */
      21,      22,'1 ',    0.82900E-02,    0.68000E-01,    0.13670    ,450.00,.00,450.00,.00000,.00000,.00000,.00000,1,.00,   1,1.0000,,,,,,,,/* [                                ] */
0 / END OF BRANCH DATA, BEGIN TRANSFORMER DATA
      24,       3,       0, '1 ',1,1,1, 0.00000E+00, 0.00000E+00, 2,'', 1,   1,1.0000,,,,,,,
.00230,.08400,   100.00
1.00000,230.000,.000,400.00,400.00,400.00,-1,      24,1.10000,.90000,1.50000,.50000,159,  0, 0., 0.
1.000000,138.000,/* [                                ] */
      11,       9,       0, '1 ',1,1,1, 0.00000E+00, 0.00000E+00, 2,'', 1,   1,1.0000,,,,,,,
.00230,.08400,   100.00
1.00000,230.000,.000,400.00,400.00,400.00,-1,      11,1.10000,.90000,1.50000,.50000,159,  0, 0., 0.
1.000000,138.000,/* [                                ] */
       9,      12,       0, '1 ',1,1,1, 0.00000E+00, 0.00000E+00, 2,'', 1,   1,1.0000,,,,,,,
.00230,.08400,   100.00
1.00000,138.000,.000,400.00,400.00,400.00,-1,       9,1.10000,.90000,1.50000,.50000,159,  0, 0., 0.
1.000000,230.000,/* [                                ] */
      11,      10,       0, '1 ',1,1,1, 0.00000E+00, 0.00000E+00, 2,'', 1,   1,1.0000,,,,,,,
.00230,.08400,   100.00
1.00000,230.000,.000,400.00,400.00,400.00,-1,      11,1.10000,.90000,1.50000,.50000,159,  0, 0., 0.
1.000000,138.000,/* [                                ] */
      12,      10,       0, '1 ',1,1,1, 0.00000E+00, 0.00000E+00, 2,'', 1,   1,1.0000,,,,,,,
.00230,.08400,   100.00
1.00000,230.000,.000,400.00,400.00,400.00,-1,      12,1.10000,.90000,1.50000,.50000,159,  0, 0., 0.
1.000000,138.000,/* [                                ] */
0 / END OF TRANSFORMER DATA, BEGIN AREA DATA
    1,     0,     0.00,     1.00,'1           '
0 / END OF AREA DATA, BEGIN TWO-TERMINAL DC DATA
0 / END OF TWO-TERMINAL DC DATA, BEGIN VSC DC LINE DATA
0 / END OF VSC DC LINE DATA, BEGIN SWITCHED SHUNT DATA
     6,0,1.00000,.99000,     0,100.0, ' ',100.00, 1,100.00,     ,/* [                                ] */
0 / END OF SWITCHED SHUNT DATA, BEGIN IMPEDANCE CORRECTION TABLE DATA
0 / END OF IMPEDANCE CORRECTION TABLE DATA, BEGIN MULTI-TERMINAL DC DATA
0 / END OF MULTI-TERMINAL DC DATA, BEGIN MULTI-SECTION LINE DATA
0 / END OF MULTI-SECTION LINE DATA, BEGIN ZONE DATA
    1,'IEEE 24     '
0 / END OF ZONE DATA, BEGIN INTER-AREA TRANSFER DATA
0 / END OF INTER-AREA TRANSFER DATA, BEGIN OWNER DATA
   1, '1           '
0 / END OF OWNER DATA, BEGIN FACTS DEVICE DATA
0 / END OF FACTS DATA
Q /End of data
